/*--------------------------------*- C++ -*----------------------------------*\
| =========                 |                                                |
| \\      /  F ield         | cfMesh: A library for mesh generation          | 
|  \\    /   O peration     |                                                |
|   \\  /    A nd           | Author: Franjo Juretic                         | 
|    \\/     M anipulation  | E-mail: franjo.juretic@c-fields.com            |
\*---------------------------------------------------------------------------*/

FoamFile
{
    version   2.0;
    format    ascii;
    class     dictionary;
    location  "system";
    object    meshDict;
}

// * * * * * * * * * * * * * * * * * * * * * * * * * * * * * * * * * * * * * //

surfaceFile "duct.stl";

maxCellSize 0.05;

boundaryCellSize 0.05;

minCellSize 0.05;

localRefinement
{
    //"ringArea.*"
    //{
    //    cellSize 0.2;
    //} 
}

boundaryLayers
{
    nLayers 5;

    thicknessRatio 1.1;

    maxFirstLayerThickness 0.01;

//    patchBoundaryLayers
//    {
//    }
}

renameBoundary
{
    defaultName		dinding_aja;
    defaultType		wall;

    newPatchNames
    {
        inlet
        {
            newName     inlet;
            newType     patch;
        }

        outlet
        {
            newName     outlet;
            newType     patch;
        }
    }
}
               
     
// ************************************************************************* //
